<?xml version="1.0" encoding="UTF-8"?>
<routes xmlns="http://symfony.com/schema/routing" xmlns:xsi="http://www.w3.org/2001/XMLSchema-instance" xsi:schemaLocation="http://symfony.com/schema/routing http://symfony.com/schema/routing/routing-1.0.xsd">
    <route id="livebroadcast.sonata.fb_long_lived_access_token" path="/admin/facebook/long-lived-access-token" controller="Martin1982\LiveBroadcastSonataAdminBundle\Controller\AdminController::longLivedAccessTokenAction" />
    <route id="livebroadcast.sonata.yt_oauth" path="/admin/youtube/oauth" controller="Martin1982\LiveBroadcastSonataAdminBundle\Controller\AdminController::youTubeOAuthAction" />
</routes>